# created with PyMOL 3.0.3
@<TRIPOS>MOLECULE
results0
25 24 1                 
SMALL
USER_CHARGES
@<TRIPOS>ATOM
1	  C1	-2.884	1.525	8.300	C.3	1	LIG1	0.000	
2	  C2	-1.995	1.608	9.519	C.3	1	LIG1	0.000	
3	  C3	-1.037	2.771	9.366	C.3	1	LIG1	0.000	
4	  C4	-0.074	2.881	10.532	C.3	1	LIG1	0.000	
5	  C5	-0.791	3.247	11.819	C.3	1	LIG1	0.000	
6	  C6	0.147	3.333	13.010	C.3	1	LIG1	0.000	
7	  C7	0.945	4.629	13.007	C.3	1	LIG1	0.000	
8	  C8	2.252	4.411	12.265	C.2	1	LIG1	0.000	
9	  O1	3.071	3.618	12.805	O.co2	1	LIG1	0.000	
10	  O2	2.448	5.155	11.267	O.co2	1	LIG1	0.000	
11	  H1	-3.425	2.464	8.157	 H	1	LIG1	0.000	
12	  H2	-3.614	0.720	8.413	 H	1	LIG1	0.000	
13	  H3	-2.289	1.332	7.403	 H	1	LIG1	0.000	
14	  H4	-1.439	0.675	9.633	 H	1	LIG1	0.000	
15	  H5	-2.617	1.733	10.407	 H	1	LIG1	0.000	
16	  H6	-1.600	3.702	9.265	 H	1	LIG1	0.000	
17	  H7	-0.466	2.643	8.444	 H	1	LIG1	0.000	
18	  H8	0.662	3.648	10.289	 H	1	LIG1	0.000	
19	  H9	0.466	1.940	10.657	 H	1	LIG1	0.000	
20	 H10	-1.553	2.497	12.041	 H	1	LIG1	0.000	
21	 H11	-1.304	4.201	11.691	 H	1	LIG1	0.000	
22	 H12	0.792	2.450	13.044	 H	1	LIG1	0.000	
23	 H13	-0.464	3.323	13.916	 H	1	LIG1	0.000	
24	 H14	1.197	4.913	14.033	 H	1	LIG1	0.000	
25	 H15	0.372	5.446	12.557	 H	1	LIG1	0.000	
@<TRIPOS>BOND
1 1 2 1
2 1 11 1
3 1 12 1
4 1 13 1
5 2 3 1
6 2 14 1
7 2 15 1
8 3 4 1
9 3 16 1
10 3 17 1
11 4 5 1
12 4 18 1
13 4 19 1
14 5 6 1
15 5 20 1
16 5 21 1
17 6 7 1
18 6 22 1
19 6 23 1
20 7 8 1
21 7 24 1
22 7 25 1
23 8 9 ar
24 8 10 ar
@<TRIPOS>SUBSTRUCTURE
1	LIG1	1	GROUP	1 ****	LIG
